NOVO24/1726529/Vaos.dss
! ==========================================================
! VAOS DE SAIDA — barra de MT da SE -> cabeceira do alimentador
! Derivado de CTMT.BARR e CTMT.UNI_TR_AT: a BDGD nao modela o
! arranjo interno da subestacao, so o vinculo logico.
! Cada vao e o disjuntor de saida do alimentador.
! ==========================================================
New Line.VAO_AGF11 phases=3 Bus1=195239683.1.2.3 Bus2=segm_195240290.1.2.3 Switch=y r1=0.0001 r0=0.0001 x1=0 x0=0 c1=0 c0=0
New Monitor.M_AGF11 element=Line.VAO_AGF11 terminal=1 mode=1 ppolar=no
New Line.VAO_AGF08 phases=3 Bus1=195239683.1.2.3 Bus2=segm_195240192.1.2.3 Switch=y r1=0.0001 r0=0.0001 x1=0 x0=0 c1=0 c0=0
New Monitor.M_AGF08 element=Line.VAO_AGF08 terminal=1 mode=1 ppolar=no
New Line.VAO_AGF10 phases=3 Bus1=195239683.1.2.3 Bus2=segm_195240238.1.2.3 Switch=y r1=0.0001 r0=0.0001 x1=0 x0=0 c1=0 c0=0
New Monitor.M_AGF10 element=Line.VAO_AGF10 terminal=1 mode=1 ppolar=no
